.subckt inv supply Inp Output
* This subcircuit defines a CMOS inverter with equal n and p widths 

.param Wp = 1.91U
.param Wn = 0.665U
.param L = 0.18U
MP1 Output Inp Supply Supply cmosp
+ L=L W=Wp AD = (2*L*Wp) AS = (2*L*Wp) PD = (2*(2*L+Wp)) PS = (2*(2*L+Wp))
MN1 Output Inp 0 0 cmosn
+ L=L W=Wn AD = (2*L*Wn) AS = (2*L*Wn) PD = (2*(2*L+Wn)) PS = (2*(2*L+Wn))
.ends
